@<TRIPOS>MOLECULE
*****
 28 31 0 0 0
SMALL
GASTEIGER

@<TRIPOS>ATOM
      1 C           0.0000    0.0000    0.0000 C.3     1  UNL1        0.1122
      2 N           0.0000    0.0000    0.0000 N.pl3   1  UNL1       -0.3040
      3 C           0.0000    0.0000    0.0000 C.3     1  UNL1        0.1122
      4 C           0.0000    0.0000    0.0000 C.ar    1  UNL1        0.0511
      5 C           0.0000    0.0000    0.0000 C.ar    1  UNL1        0.0565
      6 C           0.0000    0.0000    0.0000 C.ar    1  UNL1        0.1970
      7 O           0.0000    0.0000    0.0000 O.3     1  UNL1       -0.2865
      8 C           0.0000    0.0000    0.0000 C.ar    1  UNL1        0.0421
      9 C           0.0000    0.0000    0.0000 C.ar    1  UNL1        0.0050
     10 C           0.0000    0.0000    0.0000 C.2     1  UNL1        0.0172
     11 C           0.0000    0.0000    0.0000 C.ar    1  UNL1        0.0999
     12 C           0.0000    0.0000    0.0000 C.ar    1  UNL1        0.0541
     13 C           0.0000    0.0000    0.0000 C.ar    1  UNL1        0.2348
     14 O           0.0000    0.0000    0.0000 O.3     1  UNL1       -0.2831
     15 C           0.0000    0.0000    0.0000 C.ar    1  UNL1        0.2430
     16 O           0.0000    0.0000    0.0000 O.3     1  UNL1       -0.2828
     17 C           0.0000    0.0000    0.0000 C.ar    1  UNL1        0.1498
     18 C           0.0000    0.0000    0.0000 C.ar    1  UNL1        0.3767
     19 O           0.0000    0.0000    0.0000 O.3     1  UNL1       -0.2022
     20 C           0.0000    0.0000    0.0000 C.2     1  UNL1        0.3767
     21 C           0.0000    0.0000    0.0000 C.2     1  UNL1        0.1498
     22 C           0.0000    0.0000    0.0000 C.2     1  UNL1        0.2430
     23 O           0.0000    0.0000    0.0000 O.2     1  UNL1       -0.2828
     24 C           0.0000    0.0000    0.0000 C.2     1  UNL1        0.2348
     25 O           0.0000    0.0000    0.0000 O.2     1  UNL1       -0.2831
     26 C           0.0000    0.0000    0.0000 C.2     1  UNL1        0.0541
     27 C           0.0000    0.0000    0.0000 C.2     1  UNL1        0.0999
     28 C           0.0000    0.0000    0.0000 C.ar    1  UNL1        0.0147
@<TRIPOS>UNITY_ATOM_ATTR
19 1
charge 1
@<TRIPOS>BOND
     1     1     2    1
     2     2     3    1
     3     2     4    1
     4     4     5   ar
     5     5     6   ar
     6     6     7    1
     7     6     8   ar
     8     8     9   ar
     9     9    10    1
    10    10    11    1
    11    11    12   ar
    12    12    13   ar
    13    13    14    1
    14    13    15   ar
    15    15    16    1
    16    15    17   ar
    17    17    18   ar
    18    11    18   ar
    19    18    19    1
    20    19    20    1
    21    20    21    2
    22    21    22    1
    23    22    23    2
    24    22    24    1
    25    24    25    1
    26    24    26    2
    27    26    27    1
    28    10    27    2
    29    20    27    1
    30     9    28   ar
    31     4    28   ar

