@<TRIPOS>MOLECULE
*****
 31 34 0 0 0
SMALL
GASTEIGER

@<TRIPOS>ATOM
      1 C           0.0000    0.0000    0.0000 C.ar    1  UNL1        0.1726
      2 C           0.0000    0.0000    0.0000 C.ar    1  UNL1        0.0467
      3 C           0.0000    0.0000    0.0000 C.ar    1  UNL1        0.0375
      4 C           0.0000    0.0000    0.0000 C.ar    1  UNL1        0.0063
      5 C           0.0000    0.0000    0.0000 C.ar    1  UNL1        0.0235
      6 C           0.0000    0.0000    0.0000 C.ar    1  UNL1        0.1690
      7 O           0.0000    0.0000    0.0000 O.3     1  UNL1       -0.4687
      8 C           0.0000    0.0000    0.0000 C.3     1  UNL1        0.2526
      9 C           0.0000    0.0000    0.0000 C.3     1  UNL1        0.0807
     10 C           0.0000    0.0000    0.0000 C.2     1  UNL1        0.0508
     11 C           0.0000    0.0000    0.0000 C.2     1  UNL1        0.1216
     12 O           0.0000    0.0000    0.0000 O.2     1  UNL1       -0.4624
     13 C           0.0000    0.0000    0.0000 C.2     1  UNL1        0.1216
     14 C           0.0000    0.0000    0.0000 C.2     1  UNL1        0.0508
     15 C           0.0000    0.0000    0.0000 C.2     1  UNL1        0.1723
     16 O           0.0000    0.0000    0.0000 O.2     1  UNL1       -0.2916
     17 C           0.0000    0.0000    0.0000 C.3     1  UNL1        0.0693
     18 C           0.0000    0.0000    0.0000 C.3     1  UNL1        0.0144
     19 C           0.0000    0.0000    0.0000 C.3     1  UNL1        0.0647
     20 C           0.0000    0.0000    0.0000 C.3     1  UNL1        0.0009
     21 C           0.0000    0.0000    0.0000 C.3     1  UNL1        0.0009
     22 C           0.0000    0.0000    0.0000 C.3     1  UNL1        0.0647
     23 C           0.0000    0.0000    0.0000 C.3     1  UNL1        0.0144
     24 C           0.0000    0.0000    0.0000 C.3     1  UNL1        0.0693
     25 C           0.0000    0.0000    0.0000 C.2     1  UNL1        0.1723
     26 O           0.0000    0.0000    0.0000 O.2     1  UNL1       -0.2916
     27 C           0.0000    0.0000    0.0000 C.3     1  UNL1        0.0009
     28 C           0.0000    0.0000    0.0000 C.3     1  UNL1        0.0009
     29 BR          0.0000    0.0000    0.0000 Br      1  UNL1       -0.0489
     30 O           0.0000    0.0000    0.0000 O.3     1  UNL1       -0.4684
     31 C           0.0000    0.0000    0.0000 C.3     1  UNL1        0.2526
@<TRIPOS>BOND
     1     1     2   ar
     2     2     3   ar
     3     3     4   ar
     4     4     5   ar
     5     5     6   ar
     6     1     6   ar
     7     6     7    1
     8     7     8    1
     9     5     9    1
    10     9    10    1
    11    10    11    2
    12    11    12    1
    13    12    13    1
    14    13    14    2
    15     9    14    1
    16    14    15    1
    17    15    16    2
    18    15    17    1
    19    17    18    1
    20    18    19    1
    21    13    19    1
    22    18    20    1
    23    18    21    1
    24    11    22    1
    25    22    23    1
    26    23    24    1
    27    24    25    1
    28    10    25    1
    29    25    26    2
    30    23    27    1
    31    23    28    1
    32     3    29    1
    33     1    30    1
    34    30    31    1
