@<TRIPOS>MOLECULE
*****
 26 29 0 0 0
SMALL
GASTEIGER

@<TRIPOS>ATOM
      1 C           0.0000    0.0000    0.0000 C.ar    1  UNL1        0.2343
      2 C           0.0000    0.0000    0.0000 C.ar    1  UNL1        0.2343
      3 C           0.0000    0.0000    0.0000 C.ar    1  UNL1        0.0454
      4 C           0.0000    0.0000    0.0000 C.ar    1  UNL1        0.0035
      5 C           0.0000    0.0000    0.0000 C.ar    1  UNL1        0.0036
      6 C           0.0000    0.0000    0.0000 C.ar    1  UNL1        0.0454
      7 C           0.0000    0.0000    0.0000 C.ar    1  UNL1        0.0059
      8 C           0.0000    0.0000    0.0000 C.ar    1  UNL1        0.0380
      9 C           0.0000    0.0000    0.0000 C.ar    1  UNL1        0.1482
     10 O           0.0000    0.0000    0.0000 O.2     1  UNL1       -0.4572
     11 C           0.0000    0.0000    0.0000 C.ar    1  UNL1        0.1307
     12 C           0.0000    0.0000    0.0000 C.ar    1  UNL1        0.0342
     13 C           0.0000    0.0000    0.0000 C.2     1  UNL1        0.0478
     14 C           0.0000    0.0000    0.0000 C.2     1  UNL1        0.2306
     15 C           0.0000    0.0000    0.0000 C.2     1  UNL1        0.2192
     16 O           0.0000    0.0000    0.0000 O.2     1  UNL1       -0.2875
     17 C           0.0000    0.0000    0.0000 C.3     1  UNL1        0.1369
     18 O           0.0000    0.0000    0.0000 O.2     1  UNL1       -0.2835
     19 C           0.0000    0.0000    0.0000 C.ar    1  UNL1        0.0828
     20 C           0.0000    0.0000    0.0000 C.ar    1  UNL1        0.2373
     21 C           0.0000    0.0000    0.0000 C.ar    1  UNL1        0.2345
     22 C           0.0000    0.0000    0.0000 C.ar    1  UNL1        0.0484
     23 O           0.0000    0.0000    0.0000 O.3     1  UNL1       -0.2831
     24 O           0.0000    0.0000    0.0000 O.3     1  UNL1       -0.2830
     25 O           0.0000    0.0000    0.0000 O.3     1  UNL1       -0.2831
     26 O           0.0000    0.0000    0.0000 O.3     1  UNL1       -0.2831
@<TRIPOS>BOND
     1     1     2   ar
     2     2     3   ar
     3     3     4   ar
     4     4     5   ar
     5     5     6   ar
     6     1     6   ar
     7     5     7    1
     8     7     8   ar
     9     8     9   ar
    10     9    10   ar
    11    10    11   ar
    12    11    12   ar
    13     7    12   ar
    14    12    13    1
    15    13    14    2
    16    14    15    1
    17    15    16    2
    18    15    17    1
    19    11    17    1
    20    14    18    1
    21     9    19   ar
    22    19    20   ar
    23    20    21   ar
    24    21    22   ar
    25     8    22   ar
    26    21    23    1
    27    20    24    1
    28     2    25    1
    29     1    26    1