@<TRIPOS>MOLECULE
*****
 27 30 0 0 0
SMALL
GASTEIGER

@<TRIPOS>ATOM
      1 C           0.0000    0.0000    0.0000 C.ar    1  UNL1        0.1774
      2 C           0.0000    0.0000    0.0000 C.ar    1  UNL1        0.0402
      3 C           0.0000    0.0000    0.0000 C.ar    1  UNL1        0.0033
      4 C           0.0000    0.0000    0.0000 C.ar    1  UNL1        0.0034
      5 C           0.0000    0.0000    0.0000 C.ar    1  UNL1        0.0422
      6 C           0.0000    0.0000    0.0000 C.ar    1  UNL1        0.2292
      7 O           0.0000    0.0000    0.0000 O.3     1  UNL1       -0.2833
      8 C           0.0000    0.0000    0.0000 C.ar    1  UNL1        0.0089
      9 C           0.0000    0.0000    0.0000 C.ar    1  UNL1        0.0381
     10 C           0.0000    0.0000    0.0000 C.ar    1  UNL1        0.1482
     11 O           0.0000    0.0000    0.0000 O.2     1  UNL1       -0.4572
     12 C           0.0000    0.0000    0.0000 C.ar    1  UNL1        0.1307
     13 C           0.0000    0.0000    0.0000 C.ar    1  UNL1        0.0343
     14 C           0.0000    0.0000    0.0000 C.2     1  UNL1        0.0478
     15 C           0.0000    0.0000    0.0000 C.2     1  UNL1        0.2306
     16 C           0.0000    0.0000    0.0000 C.2     1  UNL1        0.2192
     17 O           0.0000    0.0000    0.0000 O.2     1  UNL1       -0.2875
     18 C           0.0000    0.0000    0.0000 C.3     1  UNL1        0.1369
     19 O           0.0000    0.0000    0.0000 O.2     1  UNL1       -0.2835
     20 C           0.0000    0.0000    0.0000 C.ar    1  UNL1        0.0828
     21 C           0.0000    0.0000    0.0000 C.ar    1  UNL1        0.2373
     22 C           0.0000    0.0000    0.0000 C.ar    1  UNL1        0.2345
     23 C           0.0000    0.0000    0.0000 C.ar    1  UNL1        0.0484
     24 O           0.0000    0.0000    0.0000 O.3     1  UNL1       -0.2831
     25 O           0.0000    0.0000    0.0000 O.3     1  UNL1       -0.2830
     26 O           0.0000    0.0000    0.0000 O.3     1  UNL1       -0.4682
     27 C           0.0000    0.0000    0.0000 C.3     1  UNL1        0.2526
@<TRIPOS>BOND
     1     1     2   ar
     2     2     3   ar
     3     3     4   ar
     4     4     5   ar
     5     5     6   ar
     6     1     6   ar
     7     6     7    1
     8     5     8    1
     9     8     9   ar
    10     9    10   ar
    11    10    11   ar
    12    11    12   ar
    13    12    13   ar
    14     8    13   ar
    15    13    14    1
    16    14    15    2
    17    15    16    1
    18    16    17    2
    19    16    18    1
    20    12    18    1
    21    15    19    1
    22    10    20   ar
    23    20    21   ar
    24    21    22   ar
    25    22    23   ar
    26     9    23   ar
    27    22    24    1
    28    21    25    1
    29     1    26    1
    30    26    27    1