@<TRIPOS>MOLECULE
*****
 28 31 0 0 0
SMALL
GASTEIGER

@<TRIPOS>ATOM
      1 C           0.0000    0.0000    0.0000 C.ar    1  UNL1        0.0484
      2 C           0.0000    0.0000    0.0000 C.ar    1  UNL1        0.2345
      3 C           0.0000    0.0000    0.0000 C.ar    1  UNL1        0.2373
      4 C           0.0000    0.0000    0.0000 C.ar    1  UNL1        0.0828
      5 C           0.0000    0.0000    0.0000 C.ar    1  UNL1        0.1482
      6 C           0.0000    0.0000    0.0000 C.ar    1  UNL1        0.0380
      7 C           0.0000    0.0000    0.0000 C.ar    1  UNL1        0.0059
      8 C           0.0000    0.0000    0.0000 C.ar    1  UNL1        0.0342
      9 C           0.0000    0.0000    0.0000 C.ar    1  UNL1        0.1307
     10 O           0.0000    0.0000    0.0000 O.2     1  UNL1       -0.4572
     11 C           0.0000    0.0000    0.0000 C.3     1  UNL1        0.1369
     12 C           0.0000    0.0000    0.0000 C.2     1  UNL1        0.2192
     13 O           0.0000    0.0000    0.0000 O.2     1  UNL1       -0.2875
     14 C           0.0000    0.0000    0.0000 C.2     1  UNL1        0.2306
     15 C           0.0000    0.0000    0.0000 C.2     1  UNL1        0.0478
     16 O           0.0000    0.0000    0.0000 O.2     1  UNL1       -0.2835
     17 C           0.0000    0.0000    0.0000 C.ar    1  UNL1        0.0034
     18 C           0.0000    0.0000    0.0000 C.ar    1  UNL1        0.0400
     19 C           0.0000    0.0000    0.0000 C.ar    1  UNL1        0.1724
     20 C           0.0000    0.0000    0.0000 C.ar    1  UNL1        0.1724
     21 C           0.0000    0.0000    0.0000 C.ar    1  UNL1        0.0400
     22 C           0.0000    0.0000    0.0000 C.ar    1  UNL1        0.0033
     23 O           0.0000    0.0000    0.0000 O.3     1  UNL1       -0.4684
     24 C           0.0000    0.0000    0.0000 C.3     1  UNL1        0.2526
     25 O           0.0000    0.0000    0.0000 O.3     1  UNL1       -0.4684
     26 C           0.0000    0.0000    0.0000 C.3     1  UNL1        0.2526
     27 O           0.0000    0.0000    0.0000 O.3     1  UNL1       -0.2830
     28 O           0.0000    0.0000    0.0000 O.3     1  UNL1       -0.2831
@<TRIPOS>BOND
     1     1     2   ar
     2     2     3   ar
     3     3     4   ar
     4     4     5   ar
     5     5     6   ar
     6     1     6   ar
     7     6     7   ar
     8     7     8   ar
     9     8     9   ar
    10     9    10   ar
    11     5    10   ar
    12     9    11    1
    13    11    12    1
    14    12    13    2
    15    12    14    1
    16    14    15    2
    17     8    15    1
    18    14    16    1
    19     7    17    1
    20    17    18   ar
    21    18    19   ar
    22    19    20   ar
    23    20    21   ar
    24    21    22   ar
    25    17    22   ar
    26    20    23    1
    27    23    24    1
    28    19    25    1
    29    25    26    1
    30     3    27    1
    31     2    28    1