@<TRIPOS>MOLECULE
*****
 52 55 0 0 0
SMALL
GASTEIGER

@<TRIPOS>ATOM
      1 C           0.0000    0.0000    0.0000 C.ar    1  UNL1        0.1237
      2 C           0.0000    0.0000    0.0000 C.ar    1  UNL1       -0.0264
      3 C           0.0000    0.0000    0.0000 C.ar    1  UNL1       -0.0588
      4 C           0.0000    0.0000    0.0000 C.ar    1  UNL1       -0.0575
      5 C           0.0000    0.0000    0.0000 C.ar    1  UNL1       -0.0325
      6 C           0.0000    0.0000    0.0000 C.ar    1  UNL1       -0.0224
      7 C           0.0000    0.0000    0.0000 C.3     1  UNL1        0.0472
      8 C           0.0000    0.0000    0.0000 C.2     1  UNL1        0.0449
      9 C           0.0000    0.0000    0.0000 C.2     1  UNL1        0.1131
     10 O           0.0000    0.0000    0.0000 O.2     1  UNL1       -0.4637
     11 C           0.0000    0.0000    0.0000 C.2     1  UNL1        0.1131
     12 C           0.0000    0.0000    0.0000 C.2     1  UNL1        0.0449
     13 C           0.0000    0.0000    0.0000 C.2     1  UNL1        0.1638
     14 O           0.0000    0.0000    0.0000 O.2     1  UNL1       -0.2922
     15 C           0.0000    0.0000    0.0000 C.3     1  UNL1        0.0158
     16 C           0.0000    0.0000    0.0000 C.3     1  UNL1       -0.0211
     17 C           0.0000    0.0000    0.0000 C.3     1  UNL1        0.0115
     18 C           0.0000    0.0000    0.0000 C.3     1  UNL1       -0.0590
     19 C           0.0000    0.0000    0.0000 C.3     1  UNL1       -0.0590
     20 C           0.0000    0.0000    0.0000 C.3     1  UNL1        0.0115
     21 C           0.0000    0.0000    0.0000 C.3     1  UNL1       -0.0211
     22 C           0.0000    0.0000    0.0000 C.3     1  UNL1        0.0158
     23 C           0.0000    0.0000    0.0000 C.2     1  UNL1        0.1638
     24 O           0.0000    0.0000    0.0000 O.2     1  UNL1       -0.2922
     25 C           0.0000    0.0000    0.0000 C.3     1  UNL1       -0.0590
     26 C           0.0000    0.0000    0.0000 C.3     1  UNL1       -0.0590
     27 F           0.0000    0.0000    0.0000 F       1  UNL1       -0.2055
     28 H           0.0000    0.0000    0.0000 H       1  UNL1        0.0646
     29 H           0.0000    0.0000    0.0000 H       1  UNL1        0.0619
     30 H           0.0000    0.0000    0.0000 H       1  UNL1        0.0621
     31 H           0.0000    0.0000    0.0000 H       1  UNL1        0.0649
     32 H           0.0000    0.0000    0.0000 H       1  UNL1        0.0450
     33 H           0.0000    0.0000    0.0000 H       1  UNL1        0.0350
     34 H           0.0000    0.0000    0.0000 H       1  UNL1        0.0350
     35 H           0.0000    0.0000    0.0000 H       1  UNL1        0.0349
     36 H           0.0000    0.0000    0.0000 H       1  UNL1        0.0349
     37 H           0.0000    0.0000    0.0000 H       1  UNL1        0.0235
     38 H           0.0000    0.0000    0.0000 H       1  UNL1        0.0235
     39 H           0.0000    0.0000    0.0000 H       1  UNL1        0.0235
     40 H           0.0000    0.0000    0.0000 H       1  UNL1        0.0235
     41 H           0.0000    0.0000    0.0000 H       1  UNL1        0.0235
     42 H           0.0000    0.0000    0.0000 H       1  UNL1        0.0235
     43 H           0.0000    0.0000    0.0000 H       1  UNL1        0.0349
     44 H           0.0000    0.0000    0.0000 H       1  UNL1        0.0349
     45 H           0.0000    0.0000    0.0000 H       1  UNL1        0.0350
     46 H           0.0000    0.0000    0.0000 H       1  UNL1        0.0350
     47 H           0.0000    0.0000    0.0000 H       1  UNL1        0.0235
     48 H           0.0000    0.0000    0.0000 H       1  UNL1        0.0235
     49 H           0.0000    0.0000    0.0000 H       1  UNL1        0.0235
     50 H           0.0000    0.0000    0.0000 H       1  UNL1        0.0235
     51 H           0.0000    0.0000    0.0000 H       1  UNL1        0.0235
     52 H           0.0000    0.0000    0.0000 H       1  UNL1        0.0235
@<TRIPOS>BOND
     1     1     2   ar
     2     2     3   ar
     3     3     4   ar
     4     4     5   ar
     5     5     6   ar
     6     1     6   ar
     7     5     7    1
     8     7     8    1
     9     8     9    2
    10     9    10    1
    11    10    11    1
    12    11    12    2
    13     7    12    1
    14    12    13    1
    15    13    14    2
    16    13    15    1
    17    15    16    1
    18    16    17    1
    19    11    17    1
    20    16    18    1
    21    16    19    1
    22     9    20    1
    23    20    21    1
    24    21    22    1
    25    22    23    1
    26     8    23    1
    27    23    24    2
    28    21    25    1
    29    21    26    1
    30     1    27    1
    31     2    28    1
    32     3    29    1
    33     4    30    1
    34     6    31    1
    35     7    32    1
    36    15    33    1
    37    15    34    1
    38    17    35    1
    39    17    36    1
    40    18    37    1
    41    18    38    1
    42    18    39    1
    43    19    40    1
    44    19    41    1
    45    19    42    1
    46    20    43    1
    47    20    44    1
    48    22    45    1
    49    22    46    1
    50    25    47    1
    51    25    48    1
    52    25    49    1
    53    26    50    1
    54    26    51    1
    55    26    52    1