@<TRIPOS>MOLECULE
*****
 28 31 0 0 0
SMALL
GASTEIGER

@<TRIPOS>ATOM
      1 C           0.0000    0.0000    0.0000 C.ar    1  UNL1        0.0039
      2 C           0.0000    0.0000    0.0000 C.ar    1  UNL1        0.0714
      3 C           0.0000    0.0000    0.0000 C.ar    1  UNL1        0.0039
      4 C           0.0000    0.0000    0.0000 C.ar    1  UNL1       -0.0001
      5 C           0.0000    0.0000    0.0000 C.ar    1  UNL1        0.0002
      6 C           0.0000    0.0000    0.0000 C.ar    1  UNL1       -0.0001
      7 C           0.0000    0.0000    0.0000 C.ar    1  UNL1        0.0058
      8 C           0.0000    0.0000    0.0000 C.ar    1  UNL1        0.0342
      9 C           0.0000    0.0000    0.0000 C.ar    1  UNL1        0.1307
     10 O           0.0000    0.0000    0.0000 O.2     1  UNL1       -0.4572
     11 C           0.0000    0.0000    0.0000 C.ar    1  UNL1        0.1482
     12 C           0.0000    0.0000    0.0000 C.ar    1  UNL1        0.0380
     13 C           0.0000    0.0000    0.0000 C.ar    1  UNL1        0.0484
     14 C           0.0000    0.0000    0.0000 C.ar    1  UNL1        0.2345
     15 C           0.0000    0.0000    0.0000 C.ar    1  UNL1        0.2373
     16 C           0.0000    0.0000    0.0000 C.ar    1  UNL1        0.0828
     17 O           0.0000    0.0000    0.0000 O.3     1  UNL1       -0.2830
     18 O           0.0000    0.0000    0.0000 O.3     1  UNL1       -0.2831
     19 C           0.0000    0.0000    0.0000 C.3     1  UNL1        0.1369
     20 C           0.0000    0.0000    0.0000 C.2     1  UNL1        0.2192
     21 O           0.0000    0.0000    0.0000 O.2     1  UNL1       -0.2875
     22 C           0.0000    0.0000    0.0000 C.2     1  UNL1        0.2306
     23 C           0.0000    0.0000    0.0000 C.2     1  UNL1        0.0478
     24 O           0.0000    0.0000    0.0000 O.2     1  UNL1       -0.2835
     25 C           0.0000    0.0000    0.0000 C.3     1  UNL1        0.4186
     26 F           0.0000    0.0000    0.0000 F       1  UNL1       -0.1659
     27 F           0.0000    0.0000    0.0000 F       1  UNL1       -0.1659
     28 F           0.0000    0.0000    0.0000 F       1  UNL1       -0.1659
@<TRIPOS>BOND
     1     1     2   ar
     2     2     3   ar
     3     3     4   ar
     4     4     5   ar
     5     5     6   ar
     6     1     6   ar
     7     5     7    1
     8     7     8   ar
     9     8     9   ar
    10     9    10   ar
    11    10    11   ar
    12    11    12   ar
    13     7    12   ar
    14    12    13   ar
    15    13    14   ar
    16    14    15   ar
    17    15    16   ar
    18    11    16   ar
    19    15    17    1
    20    14    18    1
    21     9    19    1
    22    19    20    1
    23    20    21    2
    24    20    22    1
    25    22    23    2
    26     8    23    1
    27    22    24    1
    28     2    25    1
    29    25    26    1
    30    25    27    1
    31    25    28    1
