@<TRIPOS>MOLECULE
*****
 55 58 0 0 0
SMALL
GASTEIGER

@<TRIPOS>ATOM
      1 C           0.0000    0.0000    0.0000 C.ar    1  UNL1       -0.0177
      2 C           0.0000    0.0000    0.0000 C.ar    1  UNL1       -0.0280
      3 C           0.0000    0.0000    0.0000 C.ar    1  UNL1        0.1267
      4 C           0.0000    0.0000    0.0000 C.ar    1  UNL1       -0.0239
      5 C           0.0000    0.0000    0.0000 C.ar    1  UNL1        0.0083
      6 C           0.0000    0.0000    0.0000 C.ar    1  UNL1        0.1211
      7 O           0.0000    0.0000    0.0000 O.3     1  UNL1       -0.5065
      8 C           0.0000    0.0000    0.0000 C.3     1  UNL1        0.0506
      9 C           0.0000    0.0000    0.0000 C.2     1  UNL1        0.0450
     10 C           0.0000    0.0000    0.0000 C.2     1  UNL1        0.1131
     11 O           0.0000    0.0000    0.0000 O.2     1  UNL1       -0.4637
     12 C           0.0000    0.0000    0.0000 C.2     1  UNL1        0.1131
     13 C           0.0000    0.0000    0.0000 C.2     1  UNL1        0.0450
     14 C           0.0000    0.0000    0.0000 C.2     1  UNL1        0.1638
     15 O           0.0000    0.0000    0.0000 O.2     1  UNL1       -0.2922
     16 C           0.0000    0.0000    0.0000 C.3     1  UNL1        0.0158
     17 C           0.0000    0.0000    0.0000 C.3     1  UNL1       -0.0211
     18 C           0.0000    0.0000    0.0000 C.3     1  UNL1        0.0115
     19 C           0.0000    0.0000    0.0000 C.3     1  UNL1       -0.0590
     20 C           0.0000    0.0000    0.0000 C.3     1  UNL1       -0.0590
     21 C           0.0000    0.0000    0.0000 C.3     1  UNL1        0.0115
     22 C           0.0000    0.0000    0.0000 C.3     1  UNL1       -0.0211
     23 C           0.0000    0.0000    0.0000 C.3     1  UNL1        0.0158
     24 C           0.0000    0.0000    0.0000 C.2     1  UNL1        0.1638
     25 O           0.0000    0.0000    0.0000 O.2     1  UNL1       -0.2922
     26 C           0.0000    0.0000    0.0000 C.3     1  UNL1       -0.0590
     27 C           0.0000    0.0000    0.0000 C.3     1  UNL1       -0.0590
     28 N           0.0000    0.0000    0.0000 N.pl3   1  UNL1        0.0564
     29 O           0.0000    0.0000    0.0000 O.2     1  UNL1       -0.1261
     30 O           0.0000    0.0000    0.0000 O.2     1  UNL1       -0.1261
     31 H           0.0000    0.0000    0.0000 H       1  UNL1        0.0655
     32 H           0.0000    0.0000    0.0000 H       1  UNL1        0.0641
     33 H           0.0000    0.0000    0.0000 H       1  UNL1        0.0644
     34 H           0.0000    0.0000    0.0000 H       1  UNL1        0.2921
     35 H           0.0000    0.0000    0.0000 H       1  UNL1        0.0451
     36 H           0.0000    0.0000    0.0000 H       1  UNL1        0.0350
     37 H           0.0000    0.0000    0.0000 H       1  UNL1        0.0350
     38 H           0.0000    0.0000    0.0000 H       1  UNL1        0.0349
     39 H           0.0000    0.0000    0.0000 H       1  UNL1        0.0349
     40 H           0.0000    0.0000    0.0000 H       1  UNL1        0.0235
     41 H           0.0000    0.0000    0.0000 H       1  UNL1        0.0235
     42 H           0.0000    0.0000    0.0000 H       1  UNL1        0.0235
     43 H           0.0000    0.0000    0.0000 H       1  UNL1        0.0235
     44 H           0.0000    0.0000    0.0000 H       1  UNL1        0.0235
     45 H           0.0000    0.0000    0.0000 H       1  UNL1        0.0235
     46 H           0.0000    0.0000    0.0000 H       1  UNL1        0.0349
     47 H           0.0000    0.0000    0.0000 H       1  UNL1        0.0349
     48 H           0.0000    0.0000    0.0000 H       1  UNL1        0.0350
     49 H           0.0000    0.0000    0.0000 H       1  UNL1        0.0350
     50 H           0.0000    0.0000    0.0000 H       1  UNL1        0.0235
     51 H           0.0000    0.0000    0.0000 H       1  UNL1        0.0235
     52 H           0.0000    0.0000    0.0000 H       1  UNL1        0.0235
     53 H           0.0000    0.0000    0.0000 H       1  UNL1        0.0235
     54 H           0.0000    0.0000    0.0000 H       1  UNL1        0.0235
     55 H           0.0000    0.0000    0.0000 H       1  UNL1        0.0235
@<TRIPOS>BOND
     1     1     2   ar
     2     2     3   ar
     3     3     4   ar
     4     4     5   ar
     5     5     6   ar
     6     1     6   ar
     7     6     7    1
     8     5     8    1
     9     8     9    1
    10     9    10    2
    11    10    11    1
    12    11    12    1
    13    12    13    2
    14     8    13    1
    15    13    14    1
    16    14    15    2
    17    14    16    1
    18    16    17    1
    19    17    18    1
    20    12    18    1
    21    17    19    1
    22    17    20    1
    23    10    21    1
    24    21    22    1
    25    22    23    1
    26    23    24    1
    27     9    24    1
    28    24    25    2
    29    22    26    1
    30    22    27    1
    31     3    28    1
    32    28    29    2
    33    28    30    1
    34     1    31    1
    35     2    32    1
    36     4    33    1
    37     7    34    1
    38     8    35    1
    39    16    36    1
    40    16    37    1
    41    18    38    1
    42    18    39    1
    43    19    40    1
    44    19    41    1
    45    19    42    1
    46    20    43    1
    47    20    44    1
    48    20    45    1
    49    21    46    1
    50    21    47    1
    51    23    48    1
    52    23    49    1
    53    26    50    1
    54    26    51    1
    55    26    52    1
    56    27    53    1
    57    27    54    1
    58    27    55    1