@<TRIPOS>MOLECULE
*****
 52 55 0 0 0
SMALL
GASTEIGER

@<TRIPOS>ATOM
      1 C           0.0000    0.0000    0.0000 C.3     1  UNL1        0.0498
      2 C           0.0000    0.0000    0.0000 C.2     1  UNL1        0.0450
      3 C           0.0000    0.0000    0.0000 C.2     1  UNL1        0.1131
      4 O           0.0000    0.0000    0.0000 O.2     1  UNL1       -0.4637
      5 C           0.0000    0.0000    0.0000 C.2     1  UNL1        0.1131
      6 C           0.0000    0.0000    0.0000 C.2     1  UNL1        0.0450
      7 C           0.0000    0.0000    0.0000 C.2     1  UNL1        0.1638
      8 O           0.0000    0.0000    0.0000 O.2     1  UNL1       -0.2922
      9 C           0.0000    0.0000    0.0000 C.3     1  UNL1        0.0158
     10 C           0.0000    0.0000    0.0000 C.3     1  UNL1       -0.0211
     11 C           0.0000    0.0000    0.0000 C.3     1  UNL1        0.0115
     12 C           0.0000    0.0000    0.0000 C.3     1  UNL1       -0.0590
     13 C           0.0000    0.0000    0.0000 C.3     1  UNL1       -0.0590
     14 C           0.0000    0.0000    0.0000 C.3     1  UNL1        0.0115
     15 C           0.0000    0.0000    0.0000 C.3     1  UNL1       -0.0211
     16 C           0.0000    0.0000    0.0000 C.3     1  UNL1        0.0158
     17 C           0.0000    0.0000    0.0000 C.2     1  UNL1        0.1638
     18 O           0.0000    0.0000    0.0000 O.2     1  UNL1       -0.2922
     19 C           0.0000    0.0000    0.0000 C.3     1  UNL1       -0.0590
     20 C           0.0000    0.0000    0.0000 C.3     1  UNL1       -0.0590
     21 C           0.0000    0.0000    0.0000 C.ar    1  UNL1       -0.0000
     22 C           0.0000    0.0000    0.0000 C.ar    1  UNL1        0.1275
     23 C           0.0000    0.0000    0.0000 C.ar    1  UNL1       -0.0261
     24 C           0.0000    0.0000    0.0000 C.ar    1  UNL1       -0.0590
     25 C           0.0000    0.0000    0.0000 C.ar    1  UNL1       -0.0613
     26 C           0.0000    0.0000    0.0000 C.ar    1  UNL1       -0.0549
     27 F           0.0000    0.0000    0.0000 F       1  UNL1       -0.2052
     28 H           0.0000    0.0000    0.0000 H       1  UNL1        0.0451
     29 H           0.0000    0.0000    0.0000 H       1  UNL1        0.0350
     30 H           0.0000    0.0000    0.0000 H       1  UNL1        0.0350
     31 H           0.0000    0.0000    0.0000 H       1  UNL1        0.0349
     32 H           0.0000    0.0000    0.0000 H       1  UNL1        0.0349
     33 H           0.0000    0.0000    0.0000 H       1  UNL1        0.0235
     34 H           0.0000    0.0000    0.0000 H       1  UNL1        0.0235
     35 H           0.0000    0.0000    0.0000 H       1  UNL1        0.0235
     36 H           0.0000    0.0000    0.0000 H       1  UNL1        0.0235
     37 H           0.0000    0.0000    0.0000 H       1  UNL1        0.0235
     38 H           0.0000    0.0000    0.0000 H       1  UNL1        0.0235
     39 H           0.0000    0.0000    0.0000 H       1  UNL1        0.0349
     40 H           0.0000    0.0000    0.0000 H       1  UNL1        0.0349
     41 H           0.0000    0.0000    0.0000 H       1  UNL1        0.0350
     42 H           0.0000    0.0000    0.0000 H       1  UNL1        0.0350
     43 H           0.0000    0.0000    0.0000 H       1  UNL1        0.0235
     44 H           0.0000    0.0000    0.0000 H       1  UNL1        0.0235
     45 H           0.0000    0.0000    0.0000 H       1  UNL1        0.0235
     46 H           0.0000    0.0000    0.0000 H       1  UNL1        0.0235
     47 H           0.0000    0.0000    0.0000 H       1  UNL1        0.0235
     48 H           0.0000    0.0000    0.0000 H       1  UNL1        0.0235
     49 H           0.0000    0.0000    0.0000 H       1  UNL1        0.0646
     50 H           0.0000    0.0000    0.0000 H       1  UNL1        0.0618
     51 H           0.0000    0.0000    0.0000 H       1  UNL1        0.0618
     52 H           0.0000    0.0000    0.0000 H       1  UNL1        0.0621
@<TRIPOS>BOND
     1     1     2    1
     2     2     3    2
     3     3     4    1
     4     4     5    1
     5     5     6    2
     6     1     6    1
     7     6     7    1
     8     7     8    2
     9     7     9    1
    10     9    10    1
    11    10    11    1
    12     5    11    1
    13    10    12    1
    14    10    13    1
    15     3    14    1
    16    14    15    1
    17    15    16    1
    18    16    17    1
    19     2    17    1
    20    17    18    2
    21    15    19    1
    22    15    20    1
    23     1    21    1
    24    21    22   ar
    25    22    23   ar
    26    23    24   ar
    27    24    25   ar
    28    25    26   ar
    29    21    26   ar
    30    22    27    1
    31     1    28    1
    32     9    29    1
    33     9    30    1
    34    11    31    1
    35    11    32    1
    36    12    33    1
    37    12    34    1
    38    12    35    1
    39    13    36    1
    40    13    37    1
    41    13    38    1
    42    14    39    1
    43    14    40    1
    44    16    41    1
    45    16    42    1
    46    19    43    1
    47    19    44    1
    48    19    45    1
    49    20    46    1
    50    20    47    1
    51    20    48    1
    52    23    49    1
    53    24    50    1
    54    25    51    1
    55    26    52    1