@<TRIPOS>MOLECULE
*****
 32 35 0 0 0
SMALL
GASTEIGER

@<TRIPOS>ATOM
      1 C           0.0000    0.0000    0.0000 C.2     1  UNL1        0.1723
      2 O           0.0000    0.0000    0.0000 O.2     1  UNL1       -0.2916
      3 C           0.0000    0.0000    0.0000 C.3     1  UNL1        0.0693
      4 C           0.0000    0.0000    0.0000 C.3     1  UNL1        0.0144
      5 C           0.0000    0.0000    0.0000 C.3     1  UNL1        0.0647
      6 C           0.0000    0.0000    0.0000 C.2     1  UNL1        0.1216
      7 C           0.0000    0.0000    0.0000 C.2     1  UNL1        0.0510
      8 C           0.0000    0.0000    0.0000 C.3     1  UNL1        0.0836
      9 C           0.0000    0.0000    0.0000 C.2     1  UNL1        0.0510
     10 C           0.0000    0.0000    0.0000 C.2     1  UNL1        0.1216
     11 O           0.0000    0.0000    0.0000 O.2     1  UNL1       -0.4624
     12 C           0.0000    0.0000    0.0000 C.3     1  UNL1        0.0647
     13 C           0.0000    0.0000    0.0000 C.3     1  UNL1        0.0144
     14 C           0.0000    0.0000    0.0000 C.3     1  UNL1        0.0693
     15 C           0.0000    0.0000    0.0000 C.2     1  UNL1        0.1723
     16 O           0.0000    0.0000    0.0000 O.2     1  UNL1       -0.2916
     17 C           0.0000    0.0000    0.0000 C.3     1  UNL1        0.0009
     18 C           0.0000    0.0000    0.0000 C.3     1  UNL1        0.0009
     19 C           0.0000    0.0000    0.0000 C.ar    1  UNL1        0.0541
     20 C           0.0000    0.0000    0.0000 C.ar    1  UNL1        0.1413
     21 O           0.0000    0.0000    0.0000 O.3     1  UNL1       -0.4715
     22 C           0.0000    0.0000    0.0000 C.3     1  UNL1        0.2525
     23 C           0.0000    0.0000    0.0000 C.ar    1  UNL1        0.0736
     24 C           0.0000    0.0000    0.0000 C.ar    1  UNL1        0.1448
     25 O           0.0000    0.0000    0.0000 O.3     1  UNL1       -0.4712
     26 C           0.0000    0.0000    0.0000 C.3     1  UNL1        0.2525
     27 C           0.0000    0.0000    0.0000 C.ar    1  UNL1        0.0736
     28 C           0.0000    0.0000    0.0000 C.ar    1  UNL1        0.1413
     29 O           0.0000    0.0000    0.0000 O.3     1  UNL1       -0.4715
     30 C           0.0000    0.0000    0.0000 C.3     1  UNL1        0.2525
     31 C           0.0000    0.0000    0.0000 C.3     1  UNL1        0.0009
     32 C           0.0000    0.0000    0.0000 C.3     1  UNL1        0.0009
@<TRIPOS>BOND
     1     1     2    2
     2     1     3    1
     3     3     4    1
     4     4     5    1
     5     5     6    1
     6     6     7    2
     7     1     7    1
     8     7     8    1
     9     8     9    1
    10     9    10    2
    11    10    11    1
    12     6    11    1
    13    10    12    1
    14    12    13    1
    15    13    14    1
    16    14    15    1
    17     9    15    1
    18    15    16    2
    19    13    17    1
    20    13    18    1
    21     8    19    1
    22    19    20   ar
    23    20    21    1
    24    21    22    1
    25    20    23   ar
    26    23    24   ar
    27    24    25    1
    28    25    26    1
    29    24    27   ar
    30    27    28   ar
    31    19    28   ar
    32    28    29    1
    33    29    30    1
    34     4    31    1
    35     4    32    1
